"""
 reference:
 Marinov, N. M., Pitz, W. J., Westbrook, C. K., Vincitore, A. M.,
 Castaldi, M. J., Senkan, S. M. "Aromatic and Polycyclic Aromatic
 Hydrocarbon Formation in a Laminar Premixed n-Butane Flame"
 Combustion and Flame 114 192-213 (1998).
 UCRL-WEB-204236
 Review and release date: May 19, 2004.

 Date: Tue, 19 Jan 1999 11:38:35 -0800 (PST)
 From: "Nick M. Marinov" <marinov1@llnl.gov>

 reference:
 Marinov, N. M., Pitz, W. J., Westbrook, C. K., Vincitore, A. M.,
 Castaldi, M. J., Senkan, S. M. "Aromatic and Polycyclic Aromatic
 Hydrocarbon Formation in a Laminar Premixed n-Butane Flame"
 Combustion and Flame 114 192-213 (1998).
 UCRL-WEB-204236
 Review and release date: May 19, 2004.

"""

units(length='cm', time='s', quantity='mol', act_energy='cal/mol')

ideal_gas(name='gas',
          elements="H O C Ar N",
          species="""h2               h                ch4
                     ch3              ch2              ch
                     ch2o             hco              co2
                     co               o2               o
                     oh               ho2              h2o2
                     h2o              c2h              hcco
                     c2h2             c2h3             c2h4
                     c2h5             c2h6             ch2oh
                     ch3o             hccoh            h2ccch
                     c3h2             ch2(s)           ch2co
                     c4h2             c5h2             c5h3
                     c6h2             c2               c2o
                     c                hcoh             ch2chcch
                     hcchcch          h2cccch          c6h5
                     c6h6             c6h5o            ch2chchch
                     ch2chcch2        h2c4o            ch2chchch2
                     ch3oh            ch2hco           c-c5h5
                     c-c5h5o          c-c5h6           c6h5oh
                     c10h8            c-c5h4oh         c-c5h4o
                     c4h10            pc4h9            sc4h9
                     c4h8-1           c4h8-2           c4h7
                     c3h6             ac3h5            pc3h5
                     sc3h5            ch2chcho         pc3h4
                     ac3h4            ch3co            c6h5ch2
                     c6h5ch3          ch2chco          ch3chco
                     ch3hco           chocho           c3h8
                     ic3h7            nc3h7            ch3chcch2
                     ch3ccch2         c6h5c2h5         c10h10
                     c10h9            c10h7            c6h4c2h3
                     c6h4c2h          c6h5c2h3         c6h5c2h
                     c10h7o           c6h5cho          c6h5co
                     hoc6h4ch3        c6h5ch2oh        oc6h4o
                     oc6h4ch3         c10h7ch2         c10h7ch3
                     ch3c6h4ch3       indene           indenyl
                     acenphthln       phnthrn          ch3chcch
                     ch3ch2cch        ch3c6h4ch2       phnthryl-1
                     phnthryl-9       flrnthn          ch3c6h4c2h3
                     ch3c6h4c2h5      c-2*4c6h6o       c-c5h7
                     l-c5h8           l-c5h7           c10h7c2h5
                     c10h7c2h3        c10h7oh          c6h5cco
                     c6h5chch         c6h5cch2         c10h7cch2
                     c10h7cch         c10h6cch         anthracn
                     ch3indene        ch3indenyl       ch3phnthrn
                     pyrene           fluoryl          fluorene
                     h2cccch2         chchcho          hcccho
                     hccco            hc4-p(def)pthn   hc4-p(def)pthyl
                     phnthroxy-1      phnthroxy-9      bz(a)ndene
                     bz(a)ndnyl       phnthrol-1       phnthrol-9
                     biphenyl         bz(a)phnthrn     bz(ghi)fln
                     fulvene          ch3cy24pd        ch3cy24pd1
                     ch3dcy24pd       cyc6h7           fulvenyl
                     ar               n2""",
          reactions='all',
          transport='Mix',
          initial_state=state(temperature=300.0, pressure=OneAtm))

#-------------------------------------------------------------------------------
# Species data
#-------------------------------------------------------------------------------

species(name='h2',
        atoms='H:2',
        thermo=(NASA([300.00, 1000.00],
                     [ 3.29812400E+00,  8.24944200E-04, -8.14301500E-07,
                      -9.47543400E-11,  4.13487200E-13, -1.01252100E+03,
                      -3.29409400E+00]),
                NASA([1000.00, 5000.00],
                     [ 2.99142300E+00,  7.00064400E-04, -5.63382900E-08,
                      -9.23157800E-12,  1.58275200E-15, -8.35034000E+02,
                      -1.35511000E+00])),
        transport=gas_transport(geom='linear',
                                diam=2.92,
                                well_depth=38.0,
                                polar=0.79,
                                rot_relax=280.0),
        note='121286')

species(name='h',
        atoms='H:1',
        thermo=(NASA([300.00, 1000.00],
                     [ 2.50000000E+00,  0.00000000E+00,  0.00000000E+00,
                       0.00000000E+00,  0.00000000E+00,  2.54716300E+04,
                      -4.60117600E-01]),
                NASA([1000.00, 5000.00],
                     [ 2.50000000E+00,  0.00000000E+00,  0.00000000E+00,
                       0.00000000E+00,  0.00000000E+00,  2.54716300E+04,
                      -4.60117600E-01])),
        transport=gas_transport(geom='atom',
                                diam=2.05,
                                well_depth=145.0),
        note='120186')

species(name='ch4',
        atoms='C:1 H:4',
        thermo=(NASA([300.00, 1000.00],
                     [ 7.78741500E-01,  1.74766800E-02, -2.78340900E-05,
                       3.04970800E-08, -1.22393100E-11, -9.82522900E+03,
                       1.37221900E+01]),
                NASA([1000.00, 5000.00],
                     [ 1.68347900E+00,  1.02372400E-02, -3.87512900E-06,
                       6.78558500E-10, -4.50342300E-14, -1.00807900E+04,
                       9.62339500E+00])),
        transport=gas_transport(geom='nonlinear',
                                diam=3.746,
                                well_depth=141.4,
                                polar=2.6,
                                rot_relax=13.0),
        note='121286')

species(name='ch3',
        atoms='C:1 H:3',
        thermo=(NASA([300.00, 1000.00],
                     [ 2.43044300E+00,  1.11241000E-02, -1.68022000E-05,
                       1.62182900E-08, -5.86495300E-12,  1.64237800E+04,
                       6.78979400E+00]),
                NASA([1000.00, 5000.00],
                     [ 2.84405200E+00,  6.13797400E-03, -2.23034500E-06,
                       3.78516100E-10, -2.45215900E-14,  1.64378100E+04,
                       5.45269700E+00])),
        transport=gas_transport(geom='linear',
                                diam=3.8,
                                well_depth=144.0),
        note='121286')

species(name='ch2',
        atoms='C:1 H:2',
        thermo=(NASA([300.00, 1350.00],
                     [ 3.49623989E+00,  2.20258645E-03, -4.23828799E-07,
                       1.36484706E-11,  4.31937372E-15,  4.59192771E+04,
                       2.94964354E+00]),
                NASA([1350.00, 5000.00],
                     [ 3.44310466E+00,  2.32638011E-03, -5.33147998E-07,
                       5.74043968E-11, -2.42694849E-15,  4.59375743E+04,
                       3.23484714E+00])),
        transport=gas_transport(geom='linear',
                                diam=3.8,
                                well_depth=144.0),
        note='llnl94')

species(name='ch',
        atoms='C:1 H:1',
        thermo=(NASA([300.00, 1000.00],
                     [ 3.20020200E+00,  2.07287600E-03, -5.13443100E-06,
                       5.73389000E-09, -1.95553300E-12,  7.04525900E+04,
                       3.33158800E+00]),
                NASA([1000.00, 5000.00],
                     [ 2.19622300E+00,  2.34038100E-03, -7.05820100E-07,
                       9.00758200E-11, -3.85504000E-15,  7.08672300E+04,
                       9.17837300E+00])),
        transport=gas_transport(geom='linear',
                                diam=2.75,
                                well_depth=80.0),
        note='121286')

species(name='ch2o',
        atoms='C:1 H:2 O:1',
        thermo=(NASA([300.00, 1000.00],
                     [ 1.65273100E+00,  1.26314400E-02, -1.88816800E-05,
                       2.05003100E-08, -8.41323700E-12, -1.48654000E+04,
                       1.37848200E+01]),
                NASA([1000.00, 5000.00],
                     [ 2.99560600E+00,  6.68132100E-03, -2.62895500E-06,
                       4.73715300E-10, -3.21251700E-14, -1.53203700E+04,
                       6.91257200E+00])),
        transport=gas_transport(geom='nonlinear',
                                diam=3.59,
                                well_depth=498.0,
                                rot_relax=2.0),
        note='121286')

species(name='hco',
        atoms='C:1 H:1 O:1',
        thermo=(NASA([300.00, 1000.00],
                     [ 2.89833000E+00,  6.19914700E-03, -9.62308400E-06,
                       1.08982500E-08, -4.57488500E-12,  4.15992200E+03,
                       8.98361400E+00]),
                NASA([1000.00, 5000.00],
                     [ 3.55727100E+00,  3.34557300E-03, -1.33500600E-06,
                       2.47057300E-10, -1.71385100E-14,  3.91632400E+03,
                       5.55229900E+00])),
        transport=gas_transport(geom='nonlinear',
                                diam=3.59,
                                well_depth=498.0),
        note='121286')

species(name='co2',
        atoms='C:1 O:2',
        thermo=(NASA([300.00, 1000.00],
                     [ 2.27572500E+00,  9.92207200E-03, -1.04091100E-05,
                       6.86668700E-09, -2.11728000E-12, -4.83731400E+04,
                       1.01884900E+01]),
                NASA([1000.00, 5000.00],
                     [ 4.45362300E+00,  3.14016900E-03, -1.27841100E-06,
                       2.39399700E-10, -1.66903300E-14, -4.89669600E+04,
                      -9.55395900E-01])),
        transport=gas_transport(geom='linear',
                                diam=3.763,
                                well_depth=244.0,
                                polar=2.65,
                                rot_relax=2.1),
        note='121286')

species(name='co',
        atoms='C:1 O:1',
        thermo=(NASA([300.00, 1000.00],
                     [ 3.26245200E+00,  1.51194100E-03, -3.88175500E-06,
                       5.58194400E-09, -2.47495100E-12, -1.43105400E+04,
                       4.84889700E+00]),
                NASA([1000.00, 5000.00],
                     [ 3.02507800E+00,  1.44268900E-03, -5.63082800E-07,
                       1.01858100E-10, -6.91095200E-15, -1.42683500E+04,
                       6.10821800E+00])),
        transport=gas_transport(geom='linear',
                                diam=3.65,
                                well_depth=98.1,
                                polar=1.95,
                                rot_relax=1.8),
        note='121286')

species(name='o2',
        atoms='O:2',
        thermo=(NASA([300.00, 1000.00],
                     [ 3.21293600E+00,  1.12748600E-03, -5.75615000E-07,
                       1.31387700E-09, -8.76855400E-13, -1.00524900E+03,
                       6.03473800E+00]),
                NASA([1000.00, 5000.00],
                     [ 3.69757800E+00,  6.13519700E-04, -1.25884200E-07,
                       1.77528100E-11, -1.13643500E-15, -1.23393000E+03,
                       3.18916600E+00])),
        transport=gas_transport(geom='linear',
                                diam=3.458,
                                well_depth=107.4,
                                polar=1.6,
                                rot_relax=3.8),
        note='121386')

species(name='o',
        atoms='O:1',
        thermo=(NASA([300.00, 1000.00],
                     [ 2.94642900E+00, -1.63816600E-03,  2.42103200E-06,
                      -1.60284300E-09,  3.89069600E-13,  2.91476400E+04,
                       2.96399500E+00]),
                NASA([1000.00, 5000.00],
                     [ 2.54206000E+00, -2.75506200E-05, -3.10280300E-09,
                       4.55106700E-12, -4.36805200E-16,  2.92308000E+04,
                       4.92030800E+00])),
        transport=gas_transport(geom='atom',
                                diam=2.75,
                                well_depth=80.0),
        note='120186')

species(name='oh',
        atoms='H:1 O:1',
        thermo=(NASA([300.00, 1000.00],
                     [ 3.63726600E+00,  1.85091000E-04, -1.67616500E-06,
                       2.38720300E-09, -8.43144200E-13,  3.60678200E+03,
                       1.35886000E+00]),
                NASA([1000.00, 5000.00],
                     [ 2.88273000E+00,  1.01397400E-03, -2.27687700E-07,
                       2.17468400E-11, -5.12630500E-16,  3.88688800E+03,
                       5.59571200E+00])),
        transport=gas_transport(geom='linear',
                                diam=2.75,
                                well_depth=80.0),
        note='121286')

species(name='ho2',
        atoms='H:1 O:2',
        thermo=(NASA([300.00, 1451.00],
                     [ 3.47629499E+00,  2.20467745E-03,  1.56841876E-06,
                      -2.12755802E-09,  5.83140718E-13,  6.17073446E+02,
                       7.02308516E+00]),
                NASA([1451.00, 5000.00],
                     [ 4.58311499E+00,  1.72730339E-03, -6.19183136E-07,
                       9.91939193E-11, -5.88221567E-15,  3.13365859E+01,
                       3.46199386E-01])),
        transport=gas_transport(geom='nonlinear',
                                diam=3.458,
                                well_depth=107.4,
                                rot_relax=1.0),
        note='mar97')

species(name='h2o2',
        atoms='H:2 O:2',
        thermo=(NASA([300.00, 1000.00],
                     [ 3.38875400E+00,  6.56922600E-03, -1.48501300E-07,
                      -4.62580600E-09,  2.47151500E-12, -1.76631500E+04,
                       6.78536300E+00]),
                NASA([1000.00, 5000.00],
                     [ 4.57316700E+00,  4.33613600E-03, -1.47468900E-06,
                       2.34890400E-10, -1.43165400E-14, -1.80069600E+04,
                       5.01137000E-01])),
        transport=gas_transport(geom='nonlinear',
                                diam=3.458,
                                well_depth=107.4,
                                rot_relax=3.8),
        note='120186')

species(name='h2o',
        atoms='H:2 O:1',
        thermo=(NASA([300.00, 1000.00],
                     [ 3.38684200E+00,  3.47498200E-03, -6.35469600E-06,
                       6.96858100E-09, -2.50658800E-12, -3.02081100E+04,
                       2.59023300E+00]),
                NASA([1000.00, 5000.00],
                     [ 2.67214600E+00,  3.05629300E-03, -8.73026000E-07,
                       1.20099600E-10, -6.39161800E-15, -2.98992100E+04,
                       6.86281700E+00])),
        transport=gas_transport(geom='nonlinear',
                                diam=2.605,
                                well_depth=572.4,
                                dipole=1.844,
                                rot_relax=4.0),
        note='20387')

species(name='c2h',
        atoms='C:2 H:1',
        thermo=(NASA([300.00, 1000.00],
                     [ 2.73770400E+00,  8.04844600E-03, -9.24431000E-06,
                       6.52525900E-09, -1.93958000E-12,  6.68381300E+04,
                       7.30022000E+00]),
                NASA([1000.00, 4000.00],
                     [ 3.98636700E+00,  3.14312300E-03, -1.26724300E-06,
                       2.92436300E-10, -2.71632000E-14,  6.65588400E+04,
                       1.19106300E+00])),
        transport=gas_transport(geom='linear',
                                diam=3.721,
                                well_depth=265.3,
                                rot_relax=2.5),
        note='81193')

species(name='hcco',
        atoms='C:2 H:1 O:1',
        thermo=(NASA([300.00, 1000.00],
                     [ 5.04796500E+00,  4.45347800E-03,  2.26828300E-07,
                      -1.48209500E-09,  2.25074200E-13,  1.96589200E+04,
                       4.81843900E-01]),
                NASA([1000.00, 4000.00],
                     [ 6.75807300E+00,  2.00040000E-03, -2.02760700E-07,
                      -1.04113200E-10,  1.96516500E-14,  1.90151300E+04,
                      -9.07126200E+00])),
        transport=gas_transport(geom='nonlinear',
                                diam=2.5,
                                well_depth=150.0,
                                rot_relax=1.0),
        note='32387')

species(name='c2h2',
        atoms='C:2 H:2',
        thermo=(NASA([300.00, 1000.00],
                     [ 2.01356200E+00,  1.51904500E-02, -1.61631900E-05,
                       9.07899200E-09, -1.91274600E-12,  2.61244400E+04,
                       8.80537800E+00]),
                NASA([1000.00, 5000.00],
                     [ 4.43677000E+00,  5.37603900E-03, -1.91281700E-06,
                       3.28637900E-10, -2.15671000E-14,  2.56676600E+04,
                      -2.80033800E+00])),
        transport=gas_transport(geom='linear',
                                diam=3.721,
                                well_depth=265.3,
                                rot_relax=2.5),
        note='121386')

species(name='c2h3',
        atoms='C:2 H:3',
        thermo=(NASA([300.00, 1671.00],
                     [ 2.73925942E+00,  7.03011591E-03,  2.36647299E-06,
                      -3.59569737E-09,  8.91756491E-13,  3.42868979E+04,
                       1.01531535E+01]),
                NASA([1671.00, 5000.00],
                     [ 3.96047713E+00,  7.99426013E-03, -2.85608087E-06,
                       4.58350813E-10, -2.72570140E-14,  3.35153544E+04,
                       2.25663414E+00])),
        transport=gas_transport(geom='nonlinear',
                                diam=3.721,
                                well_depth=265.3,
                                rot_relax=1.0),
        note='mar94')

species(name='c2h4',
        atoms='C:2 H:4',
        thermo=(NASA([300.00, 1000.00],
                     [-8.61488000E-01,  2.79616300E-02, -3.38867700E-05,
                       2.78515200E-08, -9.73787900E-12,  5.57304600E+03,
                       2.42114900E+01]),
                NASA([1000.00, 5000.00],
                     [ 3.52841900E+00,  1.14851800E-02, -4.41838500E-06,
                       7.84460100E-10, -5.26684800E-14,  4.42828900E+03,
                       2.23038900E+00])),
        transport=gas_transport(geom='nonlinear',
                                diam=3.496,
                                well_depth=238.4,
                                rot_relax=1.5),
        note='121286')

species(name='c2h5',
        atoms='C:2 H:5',
        thermo=(NASA([300.00, 1375.00],
                     [ 1.47374852E+00,  1.63606611E-02, -4.32896826E-06,
                      -1.17270665E-09,  5.72325883E-13,  1.33326992E+04,
                       1.66349852E+01]),
                NASA([1375.00, 5000.00],
                     [ 5.60116091E+00,  1.06977081E-02, -3.63504780E-06,
                       5.61816654E-10, -3.24914714E-14,  1.14539845E+04,
                      -7.02252408E+00])),
        transport=gas_transport(geom='nonlinear',
                                diam=4.35,
                                well_depth=247.5,
                                rot_relax=1.5),
        note='jpc93')

species(name='c2h6',
        atoms='C:2 H:6',
        thermo=(NASA([300.00, 1000.00],
                     [ 1.46253900E+00,  1.54946700E-02,  5.78050700E-06,
                      -1.25783200E-08,  4.58626700E-12, -1.12391800E+04,
                       1.44322900E+01]),
                NASA([1000.00, 4000.00],
                     [ 4.82593800E+00,  1.38404300E-02, -4.55725900E-06,
                       6.72496700E-10, -3.59816100E-14, -1.27177900E+04,
                      -5.23950700E+00])),
        transport=gas_transport(geom='nonlinear',
                                diam=4.35,
                                well_depth=247.5,
                                rot_relax=1.5),
        note='121686')

species(name='ch2oh',
        atoms='C:1 H:3 O:1',
        thermo=(NASA([300.00, 1410.00],
                     [ 2.60067849E+00,  1.28447854E-02, -8.33796185E-06,
                       2.75727606E-09, -3.57041106E-13, -2.33478724E+03,
                       1.13272307E+01]),
                NASA([1410.00, 5000.00],
                     [ 6.00127803E+00,  4.98721568E-03, -1.60953515E-06,
                       2.40227135E-10, -1.35582700E-14, -3.50157098E+03,
                      -6.92836844E+00])),
        transport=gas_transport(geom='nonlinear',
                                diam=3.69,
                                well_depth=417.0,
                                dipole=1.7,
                                rot_relax=2.0),
        note='mar97')

species(name='ch3o',
        atoms='C:1 H:3 O:1',
        thermo=(NASA([300.00, 1000.00],
                     [ 2.10620400E+00,  7.21659500E-03,  5.33847200E-06,
                      -7.37763600E-09,  2.07561100E-12,  9.78601100E+02,
                       1.31521800E+01]),
                NASA([1000.00, 3000.00],
                     [ 3.77080000E+00,  7.87149700E-03, -2.65638400E-06,
                       3.94443100E-10, -2.11261600E-14,  1.27832500E+02,
                       2.92957500E+00])),
        transport=gas_transport(geom='nonlinear',
                                diam=3.69,
                                well_depth=417.0,
                                dipole=1.7,
                                rot_relax=2.0),
        note='121686')

species(name='hccoh',
        atoms='C:2 H:2 O:1',
        thermo=(NASA([300.00, 1000.00],
                     [ 3.89946500E+00,  9.70107500E-03, -3.11930900E-07,
                      -5.53773200E-09,  2.46573200E-12,  8.70119000E+03,
                       4.49187500E+00]),
                NASA([1000.00, 4000.00],
                     [ 7.32832400E+00,  3.33641600E-03, -3.02470500E-07,
                      -1.78110600E-10,  3.24516800E-14,  7.59825800E+03,
                      -1.40121400E+01])),
        transport=gas_transport(geom='nonlinear',
                                diam=3.97,
                                well_depth=436.0,
                                rot_relax=2.0),
        note='32387')

species(name='h2ccch',
        atoms='C:3 H:3',
        thermo=(NASA([300.00, 1000.00],
                     [ 4.75420000E+00,  1.10802800E-02,  2.79332300E-07,
                      -5.47921200E-09,  1.94962900E-12,  3.98888300E+04,
                       5.85454900E-01]),
                NASA([1000.00, 4000.00],
                     [ 8.83104700E+00,  4.35719500E-03, -4.10906700E-07,
                      -2.36872300E-10,  4.37652000E-14,  3.84742000E+04,
                      -2.17791900E+01])),
        transport=gas_transport(geom='nonlinear',
                                diam=4.76,
                                well_depth=252.0,
                                rot_relax=1.0),
        note='82489')

species(name='c3h2',
        atoms='C:3 H:2',
        thermo=(NASA([150.00, 1000.00],
                     [ 3.16671400E+00,  2.48257200E-02, -4.59163700E-05,
                       4.26801900E-08, -1.48215200E-11,  6.35042100E+04,
                       8.86944600E+00]),
                NASA([1000.00, 4000.00],
                     [ 7.67098100E+00,  2.74874900E-03, -4.37094300E-07,
                      -6.45559900E-11,  1.66388700E-14,  6.25972200E+04,
                      -1.23689000E+01])),
        transport=gas_transport(geom='nonlinear',
                                diam=4.1,
                                well_depth=209.0,
                                rot_relax=1.0),
        note='102193')

species(name='ch2(s)',
        atoms='C:1 H:2',
        thermo=(NASA([300.00, 1359.00],
                     [ 3.32340701E+00,  2.28062579E-03, -2.48156016E-07,
                      -1.02065386E-10,  2.48826619E-14,  5.04954469E+04,
                       3.09401497E+00]),
                NASA([1359.00, 5000.00],
                     [ 3.09627180E+00,  2.80839185E-03, -7.13614526E-07,
                       8.42136298E-11, -3.84640828E-15,  5.05739697E+04,
                       4.31392269E+00])),
        transport=gas_transport(geom='linear',
                                diam=3.8,
                                well_depth=144.0),
        note='adjnbr')

species(name='ch2co',
        atoms='C:2 H:2 O:1',
        thermo=(NASA([300.00, 1000.00],
                     [ 2.97497100E+00,  1.21187100E-02, -2.34504600E-06,
                      -6.46668500E-09,  3.90564900E-12, -7.63263700E+03,
                       8.67355300E+00]),
                NASA([1000.00, 5000.00],
                     [ 6.03881700E+00,  5.80484000E-03, -1.92095400E-06,
                       2.79448500E-10, -1.45886800E-14, -8.58340200E+03,
                      -7.65758100E+00])),
        transport=gas_transport(geom='nonlinear',
                                diam=3.97,
                                well_depth=436.0,
                                rot_relax=2.0),
        note='121686')

species(name='c4h2',
        atoms='C:4 H:2',
        thermo=(NASA([300.00, 1000.00],
                     [ 4.00519200E+00,  1.98100000E-02, -9.86587700E-06,
                      -6.63515800E-09,  6.07741300E-12,  5.42406500E+04,
                       1.84573700E+00]),
                NASA([1000.00, 5000.00],
                     [ 9.03140700E+00,  6.04725300E-03, -1.94878900E-06,
                       2.75486300E-10, -1.38560800E-14,  5.29473600E+04,
                      -2.38506800E+01])),
        transport=gas_transport(geom='linear',
                                diam=4.72,
                                well_depth=357.0,
                                rot_relax=1.0),
        note='121686')

species(name='c5h2',
        atoms='C:5 H:2',
        thermo=(NASA([300.00, 1000.00],
                     [ 3.06232200E+00,  2.70999800E-02, -1.00917000E-05,
                      -1.27274500E-08,  9.16721900E-12,  8.11496900E+04,
                       7.07107800E+00]),
                NASA([1000.00, 5000.00],
                     [ 1.13291700E+01,  7.42405700E-03, -2.62818900E-06,
                       4.08254100E-10, -2.30133300E-14,  7.87870600E+04,
                      -3.61711700E+01])),
        transport=gas_transport(geom='linear',
                                diam=5.2,
                                well_depth=408.0,
                                rot_relax=1.0),
        note='20587')

species(name='c5h3',
        atoms='C:5 H:3',
        thermo=(NASA([300.00, 1386.00],
                     [ 6.30572789E+00,  2.27774621E-02, -1.57641715E-05,
                       5.43246387E-09, -7.36045558E-13,  6.71206959E+04,
                      -2.20538393E+00]),
                NASA([1386.00, 5000.00],
                     [ 1.31098142E+01,  7.16952455E-03, -2.39789731E-06,
                       3.67161467E-10, -2.11115475E-14,  6.47607541E+04,
                      -3.87971382E+01])),
        transport=gas_transport(geom='linear',
                                diam=5.2,
                                well_depth=408.0,
                                rot_relax=1.0))

species(name='c6h2',
        atoms='C:6 H:2',
        thermo=(NASA([300.00, 1000.00],
                     [ 5.75108500E+00,  2.63672000E-02, -1.16676000E-05,
                      -1.07145000E-08,  8.79029700E-12,  8.26201300E+04,
                      -4.33553200E+00]),
                NASA([1000.00, 5000.00],
                     [ 1.27565200E+01,  8.03438100E-03, -2.61821500E-06,
                       3.72506000E-10, -1.87885100E-14,  8.07546900E+04,
                      -4.04126300E+01])),
        transport=gas_transport(geom='linear',
                                diam=5.2,
                                well_depth=408.0,
                                rot_relax=1.0),
        note='121686')

species(name='c2',
        atoms='C:2',
        thermo=(NASA([300.00, 1000.00],
                     [ 6.99604500E+00, -7.40060200E-03,  3.23470400E-06,
                       4.80253500E-09, -3.29591800E-12,  9.89748700E+04,
                      -1.38622700E+01]),
                NASA([1000.00, 5000.00],
                     [ 4.13597900E+00,  6.53161800E-05,  1.83709900E-07,
                      -5.29508500E-11,  4.71213700E-15,  9.96727200E+04,
                       7.47292300E-01])),
        transport=gas_transport(geom='linear',
                                diam=3.621,
                                well_depth=97.53,
                                polar=1.76,
                                rot_relax=4.0),
        note='121286')

species(name='c2o',
        atoms='C:2 O:1',
        thermo=(NASA([300.00, 1000.00],
                     [ 3.36885100E+00,  8.24180300E-03, -8.76514500E-06,
                       5.56926200E-09, -1.54000900E-12,  3.31708100E+04,
                       6.71331400E+00]),
                NASA([1000.00, 5000.00],
                     [ 4.84980900E+00,  2.94758500E-03, -1.09072900E-06,
                       1.79256200E-10, -1.11575800E-14,  3.28205500E+04,
                      -6.45322600E-01])),
        transport=gas_transport(geom='linear',
                                diam=3.828,